Version 4
SHEET 1 880 680
WIRE 432 -368 144 -368
WIRE 768 -368 432 -368
WIRE 432 -256 432 -368
WIRE 432 -112 432 -176
WIRE 144 -64 144 -368
WIRE 432 -64 432 -112
WIRE 528 -48 480 -48
WIRE 96 16 0 16
WIRE 144 16 144 -16
WIRE 432 16 432 -16
WIRE 144 80 144 32
WIRE 272 80 144 80
WIRE 432 80 432 32
WIRE 432 80 272 80
WIRE 0 112 0 16
WIRE 272 128 272 80
WIRE 528 128 528 -48
WIRE 768 128 768 -368
WIRE 0 272 0 192
WIRE 272 272 272 208
WIRE 272 272 0 272
WIRE 400 272 272 272
WIRE 528 272 528 208
WIRE 528 272 400 272
WIRE 768 272 768 208
WIRE 768 272 528 272
FLAG 400 272 0
FLAG 432 -112 Vout
IOPIN 432 -112 Out
SYMBOL voltage 0 96 R0
SYMATTR InstName V1
SYMBOL voltage 528 112 R0
WINDOW 123 0 0 Left 2
WINDOW 39 0 0 Left 2
SYMATTR InstName V2
SYMATTR Value 1.2
SYMBOL voltage 768 112 R0
WINDOW 123 0 0 Left 2
WINDOW 39 0 0 Left 2
SYMATTR InstName V3
SYMATTR Value 1.8
SYMBOL nmos4 96 -64 R0
SYMATTR InstName M1
SYMATTR Value2 l=.18u w=10u
SYMBOL nmos4 480 32 R180
SYMATTR InstName M2
SYMATTR Value2 l=.18u w=10u
SYMBOL current 272 128 R0
WINDOW 3 24 28 Left 2
WINDOW 123 0 0 Left 2
WINDOW 39 0 0 Left 2
SYMATTR InstName I1
SYMATTR Value 1m
SYMBOL res 416 -272 R0
SYMATTR InstName R1
SYMATTR Value 1k
TEXT 320 344 Left 2 !.include 180nm.txt
TEXT -34 364 Left 2 !.dc V1 0 2.5 0.01
